data_test

_audit_creation_method generated by ABACUS

_cell_length_a 3.837
_cell_length_b 3.837
_cell_length_c 4.787
_cell_angle_alpha 90
_cell_angle_beta 90
_cell_angle_gamma 90

_symmetry_space_group_name_H-M 
_symmetry_Int_Tables_number 

loop_
_atom_site_label
_atom_site_fract_x
_atom_site_fract_y
_atom_site_fract_z
Pb 0 0 0
Ti 0.5 0.5 0.556
O 0.5 0.5 0.195
O 0 0.5 0.671
O 0.5 0 0.671
